9
Energy: -178136.752304 kcal/mol
N 1.47410506 -0.24957527 -0.51080121
C 0.43278141 0.45092779 0.00885457
O 0.56826350 1.62417490 0.36337468
C -0.88743929 -0.33583790 0.12826855
O -1.99269316 0.39364750 0.40936260
H 1.36873580 -1.22131533 -0.76448627
H 2.40046623 0.15379285 -0.51867503
H -0.63769661 -1.11132001 0.90052192
H -0.94564315 -0.91994228 -0.82523297
