9
Energy: -178141.488937 kcal/mol
N 1.38177351 -0.08379361 0.23077719
C 0.44042139 0.15977159 -0.69267018
O 0.67924061 0.29832833 -1.90318009
C -0.97350885 0.25124306 -0.10037332
O -1.04287689 0.07065303 1.24922959
H 2.35887000 -0.16934506 -0.00812230
H 1.03779275 -0.17163419 1.18223544
H -1.55469964 -0.49057561 -0.70124771
H -1.34054054 1.24441422 -0.45821992
