9
Energy: -178141.490431 kcal/mol
N -1.29031360 0.53614135 0.03577071
C -0.53546006 -0.55024148 0.25486145
O -0.92765814 -1.55078885 0.87661441
C 0.87367809 -0.43333920 -0.34426048
O 1.12500467 0.73808575 -0.99564994
H -2.24091179 0.60606509 0.36829973
H -0.83494905 1.27571002 -0.49065832
H 1.54357402 -0.63577960 0.52715398
H 0.96233082 -1.34879264 -0.97914074
