10
Energy: -178453.968591 kcal/mol
N 1.47067308 0.32986975 0.15624550
C 0.59693641 -0.60713598 -0.24006292
O 0.92211103 -1.66718628 -0.77884854
C -0.86793059 -0.30498633 0.00773647
O -1.01314707 0.95457348 0.63776742
H 2.46095736 0.18287213 0.01681859
H 1.14486406 1.18030598 0.59327287
H -1.37236372 -0.33284101 -0.96835233
H -1.26425626 -1.11986818 0.62978563
H -1.95267879 1.12497098 0.77125947
