9
Energy: -178141.480143 kcal/mol
N 1.47262710 0.32574517 0.14847451
C 0.58920617 -0.60073280 -0.25060845
O 0.90631854 -1.66382189 -0.80820083
C -0.86574324 -0.21375748 0.05218527
O -1.02276630 0.98986294 0.67334881
H 2.46694373 0.21306431 0.01521432
H 1.06580057 1.14474093 0.59009889
H -1.36776600 -0.29421104 -0.94316919
H -1.25254301 -1.09016417 0.62782240
