10
Energy: -178454.257068 kcal/mol
N 1.42668451 -0.09321084 0.22865192
C 0.48063971 0.12054766 -0.69787793
O 0.71204358 0.25187698 -1.90160404
C -0.94991822 0.21067043 -0.18501115
O -1.08829343 -0.03591527 1.20019422
H 2.39891749 -0.13854910 -0.04430642
H 1.17636693 -0.15596077 1.20535274
H -1.55917743 -0.47252386 -0.79049997
H -1.29324913 1.23432878 -0.37712332
H -1.12407256 -0.98970467 1.34481721
