9
Energy: -178136.744629 kcal/mol
N 1.56788959 0.12742525 -0.04318000
C 0.27710050 0.47801592 0.19439492
O 0.00061554 1.51659431 0.79866874
C -0.77629701 -0.50377756 -0.35745060
O -2.05437786 -0.28892916 0.03290483
H 2.31680965 0.76120952 0.19806301
H 1.79076211 -0.70662273 -0.56697361
H -0.37201402 -1.51322352 -0.08946864
H -0.61454512 -0.43855566 -1.46607150
