10
Energy: -178454.430725 kcal/mol
N 1.58745225 0.11165361 -0.08812300
C 0.30805242 0.41692080 0.17218559
O -0.04264129 1.38747390 0.84610581
C -0.74242598 -0.51491347 -0.41682979
O -2.03275179 -0.07409579 -0.06676773
H 2.32902131 0.69323332 0.27819004
H 1.83222505 -0.69520105 -0.64496886
H -0.56467965 -1.53058952 -0.03492987
H -0.62425528 -0.53223164 -1.50980300
H -1.90121913 0.72419611 0.47213245
